          18
  -50.6475012740406       kcal/mol
 O  0.798002623807831       -1.75356280975822      -0.472012301365486     
 H   1.12567785820728       -2.58447451067714      -0.778474905442424     
 H   1.58043599942479       -1.21200482066250      -0.283790958432082     
 O -0.665306872832153       0.353033710475841       -1.65109036428077     
 H -0.207104571372236      -0.466425910513646       -1.45726897770234     
 H  -1.54007907968242       0.239987096925570       -1.26341631618569     
 O  0.553775693479673        1.75672143826220       0.306741478261533     
 H  0.310160159035847        2.66919243251933       0.286379875803226     
 H  0.111605200857273        1.35681126805382      -0.465009154788400     
 O -0.661465222085397      -0.467366566118049        1.57596982550960     
 H -0.249720262264591       0.375579186167346        1.38468536544717     
 H -0.200341686281510       -1.08800078444694        1.00932596538191     
 O   2.73745449888841       5.803107606649349E-002  0.165404643229628     
 H   3.39660228033865       0.247640911422020       0.812651813197804     
 H   2.09381142184115       0.773280940779178       0.222781004488464     
 O  -2.84836173938100      -5.991816846988881E-002  2.846834494079756E-003
 H  -3.65039371071938      -0.413651090487167       0.347463153463242     
 H  -2.17073888126222      -0.235351799538252       0.670921418920538     
